Circuit: * C:\Users\mulia\Documents\!!! SCU\SCU Courses\My SCU Courseworks\ELEN 115\Homework Circuit Diagrams\Draft2.asc

.OP point found by inspection.

Date: Tue May  9 10:10:43 2023
Total elapsed time: 0.072 seconds.

tnom = 27
temp = 27
method = modified trap
totiter = 4034
traniter = 4034
tranpoints = 2018
accept = 2018
rejected = 0
matrix size = 4
fillins = 0
solver = Normal
Avg thread counts: 1.2/1.5/1.5/1.2
Matrix Compiler1: off  [0.1]/0.1/0.1
Matrix Compiler2: off  [0.1]/0.1/0.1

