Circuit: * C:\Users\mulia\Documents\!!! SCU\SCU Courses\My SCU Courseworks\ELEN 115\Homework Circuit Diagrams\Draft4.asc

.OP point found by inspection.

vavg: AVG(v(vout))=0 FROM 0 TO 0.15


Date: Wed May 10 15:14:29 2023
Total elapsed time: 0.067 seconds.

tnom = 27
temp = 27
method = modified trap
totiter = 2136
traniter = 2136
tranpoints = 1069
accept = 1059
rejected = 10
matrix size = 5
fillins = 0
solver = Normal
Avg thread counts: 1.5/1.9/1.9/1.5
Matrix Compiler1:       9 opcodes  0.1/[0.1]/0.1
Matrix Compiler2: off  [0.1]/0.1/0.1

