Circuit: * C:\Users\mulia\Documents\!!! SCU\SCU Courses\Quarter 3\ELEN 115\HW 3 #1.asc

No AC stimulus found:
     Set the value of a current or voltage source to "AC 1."
     to make it behave as a signal generator for AC analysis.
Direct Newton iteration for .op point succeeded.

Date: Mon Apr 17 20:34:31 2023
Total elapsed time: 0.046 seconds.

tnom = 27
temp = 27
method = trap
totiter = 10
traniter = 0
tranpoints = 0
accept = 0
rejected = 0
matrix size = 14
fillins = 8
solver = Normal
Avg thread counts: 12.0/0.0/12.0/12.0
Matrix Compiler1:     100 opcodes
Matrix Compiler2: 1.39 KB object code size
