Circuit: * C:\Users\mulia\Documents\!!! SCU\SCU Courses\My SCU Courseworks\ELEN 115\Homework Circuit Diagrams\HW 6 #1a - Case #4.asc

Fatal Error: Voltage source V3 and voltage source V1 are paralleled making an over-defined circuit matrix.
You will need to correct the circuit or add some series resistance.
