Circuit: * C:\Users\mulia\Documents\!!! SCU\SCU Courses\My SCU Courseworks\ELEN 115\Homework Circuit Diagrams\HW 6 #2 - Case #1.asc

WARNING: Less than two connections to node n003.  This node is used by rl.
WARNING: Less than two connections to node n002.  This node is used by r.
.OP point found by inspection.

Date: Tue May  9 11:16:45 2023
Total elapsed time: 0.042 seconds.

tnom = 27
temp = 27
method = modified trap
totiter = 4034
traniter = 4034
tranpoints = 2018
accept = 2018
rejected = 0
matrix size = 4
fillins = 0
solver = Normal
Avg thread counts: 1.2/1.5/1.5/1.2
Matrix Compiler1:       4 opcodes  0.1/[0.1]/0.1
Matrix Compiler2: 214 bytes object code size  0.1/0.1/[0.1]

