Circuit: * C:\Users\mulia\Documents\!!! SCU\SCU Courses\My SCU Courseworks\ELEN 115\Homework Circuit Diagrams\HW 6 #2 - Case #3.asc

.OP point found by inspection.

Date: Tue May  9 10:57:24 2023
Total elapsed time: 0.031 seconds.

tnom = 27
temp = 27
method = modified trap
totiter = 4034
traniter = 4034
tranpoints = 2018
accept = 2018
rejected = 0
matrix size = 3
fillins = 0
solver = Normal
Avg thread counts: 1.2/1.5/1.5/1.2
Matrix Compiler1: 68 bytes object code size  0.1/0.1/[0.1]
Matrix Compiler2: 175 bytes object code size  0.1/0.1/[0.1]

