Circuit: * C:\Users\mulia\Documents\!!! SCU\SCU Courses\My SCU Courseworks\ELEN 115\Homework Circuit Diagrams\HW 6 #1a - Case #2.asc

WARNING: Less than two connections to node n001.  This node is used by v3.
v2: Missing value, assumed 0V @ DC

Date: Wed May 10 16:43:05 2023
Total elapsed time: 0.040 seconds.

tnom = 27
temp = 27
method = trap
totiter = 83
traniter = 0
tranpoints = 0
accept = 0
rejected = 0
matrix size = 6
fillins = 0
solver = Normal
Avg thread counts: 10.3/0.0/12.0/10.3
Matrix Compiler1: 164 bytes object code size
Matrix Compiler2: 294 bytes object code size
