Circuit: * C:\Users\mulia\Documents\!!! SCU\SCU Courses\My SCU Courseworks\ELEN 115\Homework Circuit Diagrams\HW 6 #1a - Overall.asc

v2: Missing value, assumed 0V @ DC
Direct Newton iteration for .op point succeeded.

Date: Tue May  9 09:18:37 2023
Total elapsed time: 0.064 seconds.

tnom = 27
temp = 27
method = modified trap
totiter = 4045
traniter = 4034
tranpoints = 2018
accept = 2018
rejected = 0
matrix size = 6
fillins = 1
solver = Normal
Avg thread counts: 1.2/1.5/1.5/1.2
Matrix Compiler1: 290 bytes object code size  0.1/0.1/[0.1]
Matrix Compiler2: off  [0.1]/0.1/0.1

