Circuit: * C:\Users\mulia\Documents\!!! SCU\SCU Courses\My SCU Courseworks\ELEN 115\Homework Circuit Diagrams\HW 9 #1a.asc

WARNING: Node N002 is floating.

Instance "m1": Length shorter than recommended for a level 1 MOSFET.
vin: Missing value, assumed 0V @ DC

Date: Mon Jun  5 10:06:03 2023
Total elapsed time: 0.048 seconds.

tnom = 27
temp = 27
method = trap
totiter = 1231
traniter = 0
tranpoints = 0
accept = 0
rejected = 0
matrix size = 6
fillins = 0
solver = Normal
Avg thread counts: 1.8/0.0/2.6/1.8
Matrix Compiler1: 182 bytes object code size  0.1/0.1/[0.1]
Matrix Compiler2: 414 bytes object code size  0.1/0.1/[0.1]

