Circuit: * C:\Users\mulia\Documents\!!! SCU\SCU Courses\Quarter 3\ELEN 115L\ELEN 115 Lab 1 Part 3.asc

.OP point found by inspection.

Date: Wed Apr  5 15:22:49 2023
Total elapsed time: 0.048 seconds.

tnom = 27
temp = 27
method = modified trap
totiter = 1034
traniter = 1034
tranpoints = 518
accept = 518
rejected = 0
matrix size = 3
fillins = 0
solver = Normal
Avg thread counts: 1.9/2.9/2.9/1.9
Matrix Compiler1:       3 opcodes  0.1/[0.1]/0.1
Matrix Compiler2: off  [0.0]/0.1/0.1

