Circuit: * C:\Users\mulia\AppData\Local\LTspice\ELEN 115 Lab 1 Part 2.asc

Error on line 4 : vin n001 0 v
	 Unknown parameter "v"
vin: Missing value, assumed 0V @ DC
.OP point found by inspection.

Date: Wed Apr  5 15:03:28 2023
Total elapsed time: 0.029 seconds.

tnom = 27
temp = 27
method = trap
totiter = 200
traniter = 0
tranpoints = 0
accept = 0
rejected = 0
matrix size = 3
fillins = 0
solver = Normal
Avg thread counts: 5.8/0.0/9.5/5.8
Matrix Compiler1: off  [0.0]/0.1/0.8
Matrix Compiler2: off  [0.0]/0.2/0.1

