Circuit: * C:\Users\mulia\Documents\!!! SCU\SCU Courses\Quarter 3\ELEN 115L\ELEN 115 Lab 1 Part 4.asc

.OP point found by inspection.

Date: Wed Apr  5 15:55:06 2023
Total elapsed time: 0.034 seconds.

tnom = 27
temp = 27
method = trap
totiter = 40
traniter = 0
tranpoints = 0
accept = 0
rejected = 0
matrix size = 1
fillins = 0
solver = Normal
Avg thread counts: 12.0/0.0/12.0/12.0
Matrix Compiler1: off
Matrix Compiler2: 43 bytes object code size
