Circuit: * C:\Users\mulia\Documents\!!! SCU\SCU Courses\My SCU Courseworks\ELEN 115\Exam Practice\ELEN 115 Exam 2 #4b.asc

.OP point found by inspection.

Date: Wed May 17 13:57:53 2023
Total elapsed time: 0.021 seconds.

tnom = 27
temp = 27
method = modified trap
totiter = 248
traniter = 248
tranpoints = 125
accept = 96
rejected = 29
matrix size = 2
fillins = 0
solver = Normal
Avg thread counts: 4.9/8.2/8.2/4.9
Matrix Compiler1: off  [0.0]/0.1/0.1
Matrix Compiler2: off  [0.0]/0.1/0.1

