Circuit: * C:\Users\mulia\Documents\!!! SCU\SCU Courses\My SCU Courseworks\ELEN 115\Exam Practice\ELEN 115 Exam 2 #4.asc

.OP point found by inspection.

Date: Wed May 17 13:54:45 2023
Total elapsed time: 0.037 seconds.

tnom = 27
temp = 27
method = trap
totiter = 200
traniter = 0
tranpoints = 0
accept = 0
rejected = 0
matrix size = 2
fillins = 0
solver = Normal
Avg thread counts: 5.8/0.0/9.5/5.8
Matrix Compiler1: off  [0.0]/0.1/0.1
Matrix Compiler2: off  [0.0]/0.1/0.1

