Circuit: * C:\Users\mulia\Documents\!!! SCU\SCU Courses\My SCU Courseworks\ELEN 115\Exam Practice\Exam 2 (Spring 2022) #1b.asc

WARNING: Node N004 is floating.

.OP point found by inspection.

Date: Mon May 15 12:14:19 2023
Total elapsed time: 0.063 seconds.

tnom = 27
temp = 27
method = modified trap
totiter = 2136
traniter = 2136
tranpoints = 1069
accept = 1062
rejected = 7
matrix size = 7
fillins = 2
solver = Normal
Avg thread counts: 1.5/1.9/1.9/1.5
Matrix Compiler1: 468 bytes object code size  0.1/0.1/[0.1]
Matrix Compiler2: 535 bytes object code size  0.1/0.1/[0.1]

