Circuit: * C:\Users\mulia\Documents\!!! SCU\SCU Courses\My SCU Courseworks\ELEN 115\Exam Practice\Exam 2 (Spring 2022) #1b (w-o Trafo).asc

.OP point found by inspection.

vavg: AVG(v(vout))=-0.00167731 FROM 0 TO 0.15


Date: Mon May 15 12:33:59 2023
Total elapsed time: 0.058 seconds.

tnom = 27
temp = 27
method = modified trap
totiter = 2178
traniter = 2178
tranpoints = 1054
accept = 1048
rejected = 6
matrix size = 5
fillins = 0
solver = Normal
Avg thread counts: 1.4/1.9/1.9/1.4
Matrix Compiler1: 204 bytes object code size  0.1/0.1/[0.1]
Matrix Compiler2: off  [0.1]/0.1/0.1

