Circuit: * C:\Users\mulia\Documents\!!! SCU\SCU Courses\My SCU Courseworks\ELEN 115\Exam Practice\Exam 2 (Spring 2022) #1a.asc

WARNING: Node N005 is floating.

Fatal Error: DC sweep: Source "vin" not found
