Circuit: * C:\Users\mulia\Documents\!!! SCU\SCU Courses\Quarter 3\ELEN 115L\ELEN 115 Lab 2 Part 2.asc

Limiting rise time of source v1 to 0.0002
Limiting fall time of source v1 to 0.0002
Unknown node in .ic card: "vout" -- ignoring
.OP point found by inspection.

Date: Wed Apr 19 12:14:47 2023
Total elapsed time: 0.108 seconds.

tnom = 27
temp = 27
method = modified trap
totiter = 10452
traniter = 10452
tranpoints = 5227
accept = 5199
rejected = 28
matrix size = 3
fillins = 0
solver = Normal
Avg thread counts: 1.1/1.2/1.2/1.1
Matrix Compiler1:       3 opcodes  0.1/[0.1]/0.1
Matrix Compiler2: off  [0.1]/0.1/0.1

