Circuit: * C:\Users\mulia\Documents\!!! SCU\SCU Courses\Quarter 3\ELEN 115L\ELEN 115 Lab 2 Part 3.asc

.OP point found by inspection.

Date: Wed Apr 12 15:13:08 2023
Total elapsed time: 0.035 seconds.

tnom = 27
temp = 27
method = trap
totiter = 0
traniter = 0
tranpoints = 0
accept = 0
rejected = 0
matrix size = 3
fillins = 0
solver = Normal
Avg thread counts: 12.0/0.0/0.0/12.0
Matrix Compiler1:       4 opcodes
Matrix Compiler2:      15 opcodes
