Circuit: * C:\Users\mulia\Documents\!!! SCU\SCU Courses\Quarter 3\ELEN 115L\Lab_2\Prelab2.asc

Error on line 2 : v1 n001 0 v
	 Unknown parameter "v"
Error on line 5 : c1 n002 0 0.1*10^-6
	 Unknown parameter "*10^-6"
v1: Missing value, assumed 0V @ DC

Date: Sun Apr  9 08:17:13 2023
Total elapsed time: 0.018 seconds.

tnom = 27
temp = 27
method = trap
totiter = 17
traniter = 0
tranpoints = 0
accept = 0
rejected = 0
matrix size = 3
fillins = 0
solver = Normal
Avg thread counts: 12.0/0.0/12.0/12.0
Matrix Compiler1: 68 bytes object code size
Matrix Compiler2: 175 bytes object code size
