Circuit: * C:\Users\mulia\Documents\!!! SCU\SCU Courses\My SCU Courseworks\ELEN 115 Lab\Lab 4\Lab 4 LTSpice Files\Lab 4 - Sec A #3A-Fig 2(a).asc

.OP point found by inspection.

Date: Wed May  3 16:06:30 2023
Total elapsed time: 0.054 seconds.

tnom = 27
temp = 27
method = modified trap
totiter = 6914
traniter = 6914
tranpoints = 3458
accept = 3011
rejected = 447
matrix size = 5
fillins = 0
solver = Normal
Avg thread counts: 1.1/1.3/1.3/1.1
Matrix Compiler1: 168 bytes object code size  0.1/0.1/[0.1]
Matrix Compiler2: 321 bytes object code size  0.2/0.1/[0.1]

