Circuit: * C:\Users\mulia\Documents\!!! SCU\SCU Courses\My SCU Courseworks\ELEN 115 Lab\Lab 4\Lab 4 LTSpice Files\Lab 4 - Sec A #3A-Fig 2(b).asc

Direct Newton iteration for .op point succeeded.

Date: Wed May  3 16:24:05 2023
Total elapsed time: 0.070 seconds.

tnom = 27
temp = 27
method = modified trap
totiter = 4866
traniter = 4862
tranpoints = 2432
accept = 2388
rejected = 44
matrix size = 7
fillins = 0
solver = Normal
Avg thread counts: 1.2/1.4/1.4/1.2
Matrix Compiler1: 232 bytes object code size  0.1/0.1/[0.1]
Matrix Compiler2: off  [0.1]/0.1/0.1

