Circuit: * C:\Users\mulia\Documents\!!! SCU\SCU Courses\My SCU Courseworks\ELEN 115 Lab\Lab 4\Lab 4 LTSpice Files\Lab 4 - Sec A #1.asc

vin: Missing value, assumed 0V @ DC

Date: Sun May  7 10:12:37 2023
Total elapsed time: 0.024 seconds.

tnom = 27
temp = 27
method = trap
totiter = 84
traniter = 0
tranpoints = 0
accept = 0
rejected = 0
matrix size = 2
fillins = 0
solver = Normal
Avg thread counts: 10.2/0.0/12.0/10.2
Matrix Compiler1: 54 bytes object code size
Matrix Compiler2: 96 bytes object code size
