Circuit: * C:\Users\mulia\Documents\!!! SCU\SCU Courses\My SCU Courseworks\ELEN 115 Lab\Lab 4\Lab 4 LTSpice Files\Lab 4 - Sec A #2.asc

WARNING: Less than two connections to node dout.  This node is used by r1.
vin: Missing value, assumed 0V @ DC
v1: Missing value, assumed 0V @ DC

Date: Wed May  3 15:39:05 2023
Total elapsed time: 0.028 seconds.

tnom = 27
temp = 27
method = trap
totiter = 83
traniter = 0
tranpoints = 0
accept = 0
rejected = 0
matrix size = 6
fillins = 2
solver = Normal
Avg thread counts: 10.3/0.0/12.0/10.3
Matrix Compiler1: 290 bytes object code size
Matrix Compiler2: 396 bytes object code size
