Circuit: * C:\Users\mulia\Documents\!!! SCU\SCU Courses\My SCU Courseworks\ELEN 115 Lab\Lab 7\Lab 7 LTSpice Files\Lab 7 Fig 1b.asc

Instance "m2": Length shorter than recommended for a level 1 MOSFET.
Direct Newton iteration for .op point succeeded.

Date: Wed May 31 14:50:21 2023
Total elapsed time: 0.230 seconds.

tnom = 27
temp = 27
method = modified trap
totiter = 30190
traniter = 30184
tranpoints = 14868
accept = 12875
rejected = 1993
matrix size = 7
fillins = 0
solver = Normal
Avg thread counts: 1.0/1.1/1.1/1.0
Matrix Compiler1:      15 opcodes  0.1/[0.1]/0.1
Matrix Compiler2: 523 bytes object code size  0.1/0.1/[0.1]

