Circuit: * C:\Users\mulia\Documents\!!! SCU\SCU Courses\My SCU Courseworks\ELEN 115 Lab\Lab 7\Lab 7 LTSpice Files\Lab 7 Fig 2.asc

WARNING: Node N002 is floating.

Instance "m1": Length shorter than recommended for a level 1 MOSFET.
vin: Missing value, assumed 0V @ DC

Date: Sun Jun  4 11:12:59 2023
Total elapsed time: 0.052 seconds.

tnom = 27
temp = 27
method = trap
totiter = 436
traniter = 0
tranpoints = 0
accept = 0
rejected = 0
matrix size = 6
fillins = 0
solver = Normal
Avg thread counts: 3.2/0.0/5.8/3.2
Matrix Compiler1:      10 opcodes  0.1/[0.1]/0.1
Matrix Compiler2: off  [0.1]/0.1/0.1

