Circuit: * C:\Users\mulia\Documents\!!! SCU\SCU Courses\My SCU Courseworks\ELEN 115 Lab\Lab 7\Lab 7 LTSpice Files\Lab 7 Fig 2f-1.asc

Instance "m1": Length shorter than recommended for a level 1 MOSFET.
Direct Newton iteration for .op point succeeded.

Date: Wed May 31 16:59:56 2023
Total elapsed time: 10.210 seconds.

tnom = 27
temp = 27
method = modified trap
totiter = 2000038
traniter = 2000034
tranpoints = 1000018
accept = 1000018
rejected = 0
matrix size = 5
fillins = 0
solver = Normal
Avg thread counts: 1.0/1.0/1.0/1.0
Matrix Compiler1: 132 bytes object code size  0.1/0.1/[0.1]
Matrix Compiler2: 301 bytes object code size  0.1/0.1/[0.1]

