Circuit: * C:\Users\mulia\Documents\!!! SCU\SCU Courses\My SCU Courseworks\ELEN 115 Lab\Lab 7\Lab 7 LTSpice Files\Lab 7 Fig 1a.asc

Instance "m1": Length shorter than recommended for a level 1 MOSFET.
Direct Newton iteration for .op point succeeded.

Date: Wed May 31 14:49:36 2023
Total elapsed time: 0.138 seconds.

tnom = 27
temp = 27
method = modified trap
totiter = 30340
traniter = 30336
tranpoints = 14981
accept = 13040
rejected = 1941
matrix size = 5
fillins = 0
solver = Normal
Avg thread counts: 1.0/1.1/1.1/1.0
Matrix Compiler1: 150 bytes object code size  0.1/0.1/[0.1]
Matrix Compiler2: off  [0.1]/0.1/0.1

