Circuit: * C:\Users\mulia\Documents\!!! SCU\SCU Courses\My SCU Courseworks\ELEN 115 Lab\Lab 7\Lab 7 LTSpice Files\Lab 7 Fig 2f.asc

Direct Newton iteration for .op point succeeded.

Date: Wed May 31 16:05:27 2023
Total elapsed time: 0.087 seconds.

tnom = 27
temp = 27
method = modified trap
totiter = 5046
traniter = 5034
tranpoints = 2518
accept = 2518
rejected = 0
matrix size = 5
fillins = 0
solver = Normal
Avg thread counts: 1.2/1.4/1.4/1.2
Matrix Compiler1:       7 opcodes  0.1/[0.1]/0.1
Matrix Compiler2: off  [0.1]/0.1/0.1

