Circuit: * C:\Users\mulia\Documents\!!! SCU\SCU Courses\My SCU Courseworks\ELEN 115 Lab\Lab 7\Lab 7 LTSpice Files\Lab 7 Fig 1c.asc

Direct Newton iteration for .op point succeeded.

Date: Wed May 31 15:24:19 2023
Total elapsed time: 1.455 seconds.

tnom = 27
temp = 27
method = modified trap
totiter = 230499
traniter = 230496
tranpoints = 115204
accept = 112405
rejected = 2799
matrix size = 9
fillins = 0
solver = Normal
Avg thread counts: 1.0/1.0/1.0/1.0
Matrix Compiler1: 386 bytes object code size  0.1/0.2/[0.1]
Matrix Compiler2: 671 bytes object code size  0.1/0.3/[0.1]

