Circuit: * C:\Users\mulia\Documents\!!! SCU\SCU Courses\My SCU Courseworks\ELEN 115 Lab\Lab 6\Lab 6 LTSpice Files\Prelab 6 Part 1.asc

WARNING: Node NC_01 is floating.

vgs: Missing value, assumed 0V @ DC
vds: Missing value, assumed 0V @ DC
.OP point found by inspection.
.step vgs=0
.step vgs=0.5
.step vgs=1
.step vgs=1.5
.step vgs=2
.step vgs=2.5

Date: Mon May 15 13:45:06 2023
Total elapsed time: 0.051 seconds.

tnom = 27
temp = 27
method = trap
totiter = 361
traniter = 0
tranpoints = 0
accept = 0
rejected = 0
matrix size = 5
fillins = 0
solver = Normal
Avg thread counts: 3.7/0.0/6.9/3.7
Matrix Compiler1: off  [0.1]/0.1/0.1
Matrix Compiler2: off  [0.0]/0.1/0.1

