Circuit: * C:\Users\mulia\Documents\!!! SCU\SCU Courses\My SCU Courseworks\ELEN 115 Lab\Lab 5\Lab 5 LTSpice Files\Lab 5 - Part 3.asc

.OP point found by inspection.

vavg: AVG(v(vout))=9.01663 FROM 0 TO 0.15
vmax: MAX(v(vout))=14.1654 FROM 0 TO 0.15
vrms: RMS(v(vout))=9.98379 FROM 0 TO 0.15
vmin: MIN(v(vout))=1.0232e-07 FROM 0 TO 0.15


Date: Wed May 10 15:50:17 2023
Total elapsed time: 0.077 seconds.

tnom = 27
temp = 27
method = modified trap
totiter = 4947
traniter = 4947
tranpoints = 1618
accept = 1449
rejected = 169
matrix size = 9
fillins = 5
solver = Normal
Avg thread counts: 1.2/1.6/1.7/1.2
Matrix Compiler1: 742 bytes object code size  0.2/0.2/[0.2]
Matrix Compiler2: off  [0.1]/0.2/0.1

