Circuit: * C:\Users\mulia\Documents\!!! SCU\SCU Courses\My SCU Courseworks\ELEN 115 Lab\Lab 5\Lab 5 LTSpice Files\Lab 5 - Part 4.asc

.OP point found by inspection.

vavg: AVG(v(vout))=9.01729 FROM 0 TO 0.15
vmax: MAX(v(vout))=14.1288 FROM 0 TO 0.15
vrms: RMS(v(vout))=9.97989 FROM 0 TO 0.15
vmin: MIN(v(vout))=-3.04201e-07 FROM 0 TO 0.15
imax: MAX(i(rl))=6.08401e-09 FROM 0 TO 0.15
imin: MIN(i(rl))=-0.282576 FROM 0 TO 0.15

Measurement "vd4max" FAIL'ed


Date: Wed May 10 15:47:14 2023
Total elapsed time: 0.064 seconds.

tnom = 27
temp = 27
method = modified trap
totiter = 2174
traniter = 2174
tranpoints = 1070
accept = 1060
rejected = 10
matrix size = 8
fillins = 1
solver = Normal
Avg thread counts: 1.4/1.9/1.9/1.4
Matrix Compiler1: 532 bytes object code size  0.2/0.2/[0.2]
Matrix Compiler2: off  [0.1]/0.2/0.1

