Circuit: * C:\Users\mulia\Documents\!!! SCU\SCU Courses\My SCU Courseworks\ELEN 115 Lab\Lab 5\Lab 5 LTSpice Files\Prelab 5 - #1a-b.asc


Date: Sun May  7 18:52:24 2023
Total elapsed time: 0.037 seconds.

tnom = 27
temp = 27
method = trap
totiter = 97
traniter = 0
tranpoints = 0
accept = 0
rejected = 0
matrix size = 3
fillins = 0
solver = Normal
Avg thread counts: 9.6/0.0/12.0/9.6
Matrix Compiler1: off  [0.1]/0.1/0.1
Matrix Compiler2: off  [0.0]/0.1/0.1

