Circuit: * C:\Users\mulia\Documents\!!! SCU\SCU Courses\My SCU Courseworks\ELEN 115 Lab\Lab 5\Lab 5 LTSpice Files\Prelab 5 - #3.asc

.OP point found by inspection.

Date: Sun May  7 18:24:40 2023
Total elapsed time: 0.037 seconds.

tnom = 27
temp = 27
method = modified trap
totiter = 4115
traniter = 4115
tranpoints = 2052
accept = 2045
rejected = 7
matrix size = 3
fillins = 0
solver = Normal
Avg thread counts: 1.2/1.5/1.5/1.2
Matrix Compiler1: off  [0.0]/0.1/0.1
Matrix Compiler2: off  [0.0]/0.1/0.1

