Circuit: * C:\Users\mulia\Documents\!!! SCU\SCU Courses\My SCU Courseworks\ELEN 115 Lab\Lab 5\Lab 5 LTSpice Files\Prelab 5 - #1c.asc

.OP point found by inspection.

Date: Sun May  7 18:54:29 2023
Total elapsed time: 0.066 seconds.

tnom = 27
temp = 27
method = modified trap
totiter = 4060
traniter = 4060
tranpoints = 2018
accept = 2018
rejected = 0
matrix size = 3
fillins = 0
solver = Normal
Avg thread counts: 1.2/1.5/1.5/1.2
Matrix Compiler1:       5 opcodes  0.1/[0.0]/0.1
Matrix Compiler2: 163 bytes object code size  0.1/0.1/[0.1]

